4
REFERENCE ENERGY: -77.247979260899996
C  -0.049735932236  -0.074357536440   0.038858388233
C   0.141870643131   0.210262480759   1.258927525228
H   0.895296518147  -0.005987017173   1.909725814291
H  -0.581270697595   0.844162202351   1.917473892621
4

C  -0.049247302127  -0.073508486006   0.041486063192 
C   0.139714793916   0.209814868311   1.256562278699 
H   0.903506652758  -0.004937707722   1.914743518302 
H  -0.570804145137   0.838534176687   1.909390234693 
4

C  -0.048737386381  -0.072704709092   0.043953166757 
C   0.137505208143   0.209441604182   1.254324872217 
H   0.912720987737  -0.004308076738   1.920363700063 
H  -0.560410799598   0.832889469030   1.901065676900 
4

C  -0.048227346246  -0.071947318472   0.046246937147 
C   0.135260166439   0.209138938400   1.252235575159 
H   0.922799615371  -0.004050812744   1.926434101911 
H  -0.550166427824   0.827278886844   1.892576248131 
4

C  -0.047729134170  -0.071238547335   0.048354465475 
C   0.132998969878   0.208902323530   1.250313230481 
H   0.933600696532  -0.004124024683   1.932813905104 
H  -0.540151544837   0.821763338529   1.883999128554 
4

C  -0.047249627204  -0.070581124427   0.050263321984 
C   0.130741095375   0.208726587636   1.248574582526 
H   0.944985941606  -0.004490196689   1.939374011268 
H  -0.530450899148   0.816411718778   1.875415776888 
4

C  -0.046792833275  -0.069977903515   0.051962028449 
C   0.128505625989   0.208605986129   1.247033753339 
H   0.956824236563  -0.005115492182   1.945997904307 
H  -0.521152560360   0.811299567441   1.866913217225 
4

C  -0.046361068449  -0.069431631431   0.053440425860 
C   0.126310799479   0.208534230501   1.245701840597 
H   0.968994572580  -0.005969460879   1.952582835545 
H  -0.512346743029   0.806507925730   1.858584097539 
4

C  -0.045955596417  -0.068944797272   0.054689929326 
C   0.124173784924   0.208504490320   1.244586711338 
H   0.981387384368  -0.007024732264   1.959040016960 
H  -0.504125123508   0.802122492185   1.850526358039 
4

C  -0.045576996769  -0.068519539709   0.055703651027 
C   0.122110689521   0.208509402846   1.243693054792 
H   0.993903928172  -0.008256519743   1.965293488487 
H  -0.496580375043   0.798232763839   1.842842486570 
4

C  -0.045225393994  -0.068157601969   0.056476406427 
C   0.120136581952   0.208541165922   1.243022666955 
H   1.006454981582  -0.009642127796   1.971278579542 
H  -0.489804819389   0.794930442143   1.835637698875 
4

C  -0.044900601915  -0.067860323491   0.057004651746 
C   0.118265426134   0.208591721577   1.242574892307 
H   1.018959556390  -0.011160549163   1.976940370755 
H  -0.483887950880   0.792306976146   1.829017025607 
4

C  -0.044602209407  -0.067628649853   0.057286404365 
C   0.116509898750   0.208653012687   1.242347106334 
H   1.031344199856  -0.012792249392   1.982232569584 
H  -0.478913280060   0.790450436025   1.823081686051 
4

C  -0.044329631750  -0.067463143868   0.057321170764 
C   0.114881145278   0.208717291524   1.242335195842 
H   1.043542665880  -0.014519067215   1.987116704942 
H  -0.474954893985   0.789441866596   1.817925059055 
4

C  -0.044082146712  -0.067363992211   0.057109883145 
C   0.113388561656   0.208777443630   1.242534049469 
H   1.055495285025  -0.016324059538   1.991561175405 
H  -0.472074008349   0.789351396956   1.813628555507 
4

C  -0.043858924963  -0.067331009645   0.056654841200 
C   0.112039613529   0.208827298851   1.242938029615 
H   1.067148132738  -0.018191323128   1.995540207484 
H  -0.470315736354   0.790234469096   1.810257731178 
4

C  -0.043659055176  -0.067363646213   0.055959652095 
C   0.110839695733   0.208861909442   1.243541395518 
H   1.078452158390  -0.020105836795   1.999032863271 
H  -0.469706304529   0.792128486457   1.807858953273 
4

C  -0.043481563012  -0.067460999446   0.055029165211 
C   0.109792052566   0.208877769998   1.244338650142 
H   1.089362320601  -0.022053319625   2.002022121015 
H  -0.470251017894   0.795050196510   1.806456964576 
4

C  -0.043325426088  -0.067621830907   0.053869399623 
C   0.108897771223   0.208872955419   1.245324782867 
H   1.099836856442  -0.024020118139   2.004494084044 
H  -0.471933265005   0.798994121792   1.806053647668 
4

C  -0.043189586952  -0.067844585688   0.052487464525 
C   0.108155855487   0.208847160767   1.246495392025 
H   1.109836734258  -0.025993122538   2.006437357006 
H  -0.474714709103   0.803932235591   1.806628137575 
4

C  -0.043072964656  -0.068127414033   0.050891473719 
C   0.107563384844   0.208801639162   1.247846691537 
H   1.119325212266  -0.027959691958   2.007842559108 
H  -0.478536637203   0.809814901825   1.808138248540 
4

C  -0.042974464875  -0.068468194871   0.049090455660 
C   0.107115749856   0.208739049573   1.249375419770 
H   1.128267444142  -0.029907582659   2.008701935662 
H  -0.483322288332   0.816572929528   1.810523019039 
4

C  -0.042892988081  -0.068864561568   0.047094260734 
C   0.106806944562   0.208663233065   1.251078675209 
H   1.136630122945  -0.031824883055   2.009009049642 
H  -0.488979922028   0.824120520599   1.813706080679 
4

C  -0.042827434500  -0.069313930680   0.044913467473 
C   0.106629899316   0.208578929879   1.252953705617 
H   1.144381175859  -0.033699951072   2.008758545120 
H  -0.495406429067   0.832358925983   1.817599524500 
4

C  -0.042776705365  -0.069813533244   0.042559288511 
C   0.106576835492   0.208491453498   1.254997683513 
H   1.151489529335  -0.035521343966   2.007945974303 
H  -0.502491248047   0.841180550187   1.822107875738 
4

C  -0.042739703134  -0.070360444952   0.040043477217 
C   0.106639605355   0.208406364308   1.257207502978 
H   1.157924956608  -0.037277743827   2.006567680507 
H  -0.510120145914   0.850472979210   1.827131754589 
4

C  -0.042715335465  -0.070951610598   0.037378235618 
C   0.106809979485   0.208329191509   1.259579607659 
H   1.163658002332  -0.038957902374   2.004620740816 
H  -0.518178460531   0.860122457162   1.832571085092 
4

C  -0.042702524480  -0.071583863164   0.034576123335 
C   0.107079866191   0.208265227558   1.262109840745 
H   1.168659968577  -0.040550632408   2.002102980128 
H  -0.526553688601   0.870016675849   1.838327945319 
4

C  -0.042700215944  -0.072253944472   0.031649967343 
C   0.107441460377   0.208219395038   1.264793332550 
H   1.172902958731  -0.042044847574   1.999013058467 
H  -0.535137392456   0.880046889612   1.844308878301 
4

C  -0.042707380372  -0.072958534605   0.028612772313 
C   0.107887356235   0.208196137059   1.267624439669 
H   1.176360006477  -0.043429616361   1.995350612800 
H  -0.543826747654   0.890109732889   1.850426536413 
4

C  -0.042723006803  -0.073694286840   0.025477631245 
C   0.108410662820   0.208199292597   1.270596722527 
H   1.179005319552  -0.044694208692   1.991116431466 
H  -0.552526107506   0.900109022172   1.856600848302 
4

C  -0.042746099407  -0.074457856356   0.022257638776 
C   0.109005069321   0.208232022017   1.273702971497 
H   1.180814626055  -0.045828155397   1.986312656853 
H  -0.561147977337   0.909956848861   1.862759549151 
4

C  -0.042775680743  -0.075245918356   0.018965812567 
C   0.109664817313   0.208296818016   1.276935275238 
H   1.181765601382  -0.046821329414   1.980943025894 
H  -0.569613015591   0.919573692635   1.868838065174 
4

C  -0.042810796259  -0.076055180633   0.015615026629 
C   0.110384621815   0.208395556430   1.280285090906 
H   1.181838376294  -0.047664043190   1.975013157579 
H  -0.577849613107   0.928888120249   1.874779181577 
4

C  -0.042850516978  -0.076882394210   0.012217957857 
C   0.111159577835   0.208529561938   1.283743297769 
H   1.181016127853  -0.048347181350   1.968530892553 
H  -0.585793431685   0.937836360280   1.880532695379 
4

C  -0.042893941325  -0.077724364453   0.008787042314 
C   0.111985063506   0.208699681273   1.287300240957 
H   1.179285755485  -0.048862387677   1.961506682215 
H  -0.593386969166   0.946361839609   1.886055019370 
4

C  -0.042940196738  -0.078577965487   0.005334432792 
C   0.112856648909   0.208906349404   1.290945774963 
H   1.176638647474  -0.049202294949   1.953954009991 
H  -0.600579224444   0.954414811992   1.891308746405 
4

C  -0.042988441708  -0.079440157595   0.001871950085 
C   0.113770000348   0.209149655609   1.294669318120 
H   1.173071538208  -0.049360779178   1.945889827807 
H  -0.607325348860   0.961951975616   1.896262148756 
4

C  -0.043037868379  -0.080308004104  -0.001588971223 
C   0.114720764595   0.209429422673   1.298459918961 
H   1.168587449751  -0.049333227610   1.937335007981 
H  -0.613586137336   0.968935935784   1.900888586405 
4

C  -0.043087704818  -0.081178684491  -0.005037332845 
C   0.115704434874   0.209745293050   1.302306317869 
H   1.163196727974  -0.049116815772   1.928314827742 
H  -0.619327417632   0.975334576621   1.905165887671 
4

C  -0.043137217088  -0.082049501720  -0.008462608184 
C   0.116716205617   0.210096810736   1.306196987139 
H   1.156918205900  -0.048710800467   1.918859489218 
H  -0.624519455276   0.981120453711   1.909075774784 
4

C  -0.043185711984  -0.082917883928  -0.011854760466 
C   0.117750816944   0.210483497826   1.310120145315 
H   1.149780532178  -0.048116864932   1.909004667434 
H  -0.629136428603   0.986270255345   1.912603362552 
4

C  -0.043232538793  -0.083781383342  -0.015204249157 
C   0.118802389589   0.210904933576   1.314063749862 
H   1.141823676385  -0.047339575714   1.898792098623 
H  -0.633155991287   0.990764332725   1.915736733384 
4

C  -0.043277087876  -0.084637676007  -0.018502031961 
C   0.119864256580   0.211360838505   1.318015475591 
H   1.133100567986  -0.046386939972   1.888270206595 
H  -0.636558930150   0.994586289347   1.918466587716 
4

C  -0.043318788682  -0.085484563077  -0.021739566827 
C   0.120928792928   0.211851150539   1.321962679244 
H   1.123678877161  -0.045270951202   1.877494823338 
H  -0.639328902184   0.997722646311   1.920785964936 
4

C  -0.043357111425  -0.086319971291  -0.024908814264 
C   0.121987260716   0.212376081936   1.325892361908 
H   1.113642719692  -0.044008056545   1.866529882218 
H  -0.641452221421   1.000162606067   1.922690025800 
4

C  -0.043391571884  -0.087141950976  -0.028002238398 
C   0.123029725971   0.212936153639   1.329791175976 
H   1.103093553635  -0.042619469987   1.855447512636 
H  -0.642917701710   1.001897905539   1.924175890442 
4

C  -0.043421734826  -0.087948672761  -0.031012805829 
C   0.124045013865   0.213532223649   1.333645463077 
H   1.092150616275  -0.041131455497   1.844327683392 
H  -0.643716587137   1.002922742938   1.925242531642 
4

C  -0.043447210179  -0.088738426166  -0.033933980966 
C   0.125020587641   0.214165548439   1.337441239203 
H   1.080952342785  -0.039576003235   1.833258366016 
H  -0.643842595928   1.003233751437   1.925890728984 
4

C  -0.043467647430  -0.089509618997  -0.036759715535 
C   0.125942394595   0.214837834829   1.341164140960 
H   1.069658307578  -0.037991489247   1.822336036613 
H  -0.643292036277   1.002830036892   1.926123077818 
4

C  -0.043482737689  -0.090260772737  -0.039484432384 
C   0.126794841594   0.215551236145   1.344799443984 
H   1.058449645735  -0.036422872734   1.811665222831 
H  -0.642063943888   1.001713332483   1.925944036484 
4

C  -0.043492214768  -0.090990515656  -0.042103006178 
C   0.127561045000   0.216308282022   1.348332198139 
H   1.047526277048  -0.034921192276   1.801356570313 
H  -0.640160290649   0.999888229824   1.925360022861 
4

C  -0.043495850774  -0.091697577938  -0.044610744518 
C   0.128223327567   0.217111746922   1.351747450141 
H   1.037101392834  -0.033542334334   1.791523785728 
H  -0.637586310881   0.997362442456   1.924379585716 
4

C  -0.043493457402  -0.092380787557  -0.047003372243 
C   0.128763631617   0.217964526356   1.355030429226 
H   1.027396995090  -0.032345959033   1.782280989601 
H  -0.634350931798   0.994147164955   1.923013650422 
4

C  -0.043484892723  -0.093039064369  -0.049277016830 
C   0.129163926318   0.218869491513   1.358166735946 
H   1.018639405728  -0.031394313840   1.773740007613 
H  -0.630467271359   0.990257581710   1.921275815597 
4

C  -0.043470057818  -0.093671415312  -0.051428192555 
C   0.129406844750   0.219829283152   1.361142587202 
H   1.011052154359  -0.030750419611   1.766006905277 
H  -0.625953233172   0.985713466185   1.919182713989 
4

C  -0.043448884811  -0.094276931750  -0.053453781505 
C   0.129476607725   0.220846015067   1.363945129037 
H   1.004845731765  -0.030475235990   1.759177575551 
H  -0.620832219185   0.980539821359   1.916754460877 
4

C  -0.043421333040  -0.094854784650  -0.055351011157 
C   0.129360125192   0.221920898960   1.366562797242 
H   1.000205338299  -0.030624019755   1.753332636036 
H  -0.615133930631   0.974767622867   1.914015188139 
4

C  -0.043387393047  -0.095404216737  -0.057117429819 
C   0.129048022435   0.223053864611   1.368985614712 
H   0.997279511907  -0.031242769906   1.748532983202 
H  -0.608895245955   0.968434699139   1.910993659048 
4

C  -0.043347088434  -0.095924534073  -0.058750880243 
C   0.128535468913   0.224243222369   1.371205370493 
H   0.996171088839  -0.032365232464   1.744816693767 
H  -0.602161127230   0.961586669389   1.907723924317 
4

C  -0.043300472353  -0.096415098546  -0.060249471570 
C   0.127822770256   0.225485394032   1.373215680400 
H   0.996930883346  -0.034010601881   1.742197382892 
H  -0.594985403194   0.954277758078   1.904245908409 
4

C  -0.043247622134  -0.096875320723  -0.061611549884 
C   0.126915673275   0.226774736778   1.375011931478 
H   0.999554558413  -0.036182078093   1.740664050709 
H  -0.587431295477   0.946571352333   1.900605872344 
4

C  -0.043188635712  -0.097304652336  -0.062835668357 
C   0.125825355891   0.228103466093   1.376591101075 
H   1.003983067981  -0.038866448725   1.740182390129 
H  -0.579571781843   0.938540425972   1.896856904247 
4

C  -0.043123629069  -0.097702579314  -0.063920558027 
C   0.124568119726   0.229461666612   1.377951457289 
H   1.010106630589  -0.042034761913   1.740697385833 
H  -0.571489993377   0.930268038669   1.893059540536 
4

C  -0.043052731398  -0.098068617054  -0.064865100332 
C   0.123164826761   0.230837388625   1.379092175562 
H   1.017771793032  -0.045644058988   1.742136914859 
H  -0.563279663026   0.921847884102   1.889282406540 
4

C  -0.042976075740  -0.098402308703  -0.065668302504 
C   0.121640122080   0.232216840129   1.380012904270 
H   1.026790968371  -0.049640076240   1.744416083149 
H  -0.555045469794   0.913384677150   1.885602760369 
4

C  -0.042893787179  -0.098703226042  -0.066329276679 
C   0.120021458432   0.233584701096   1.380713340783 
H   1.036953653871  -0.053960601923   1.747442042691 
H  -0.546902640871   0.904993744011   1.882106472678 
4

C  -0.042805978730  -0.098970969132  -0.066847223314 
C   0.118337973196   0.234924567046   1.381192918305 
H   1.048037844497  -0.058538817749   1.751118733366 
H  -0.538974919626   0.896799009835   1.878886818438 
4

C  -0.042712762418  -0.099205160282  -0.067221420011 
C   0.116619429791   0.236219426435   1.381450647592 
H   1.059819424166  -0.063305969649   1.755350627147 
H  -0.531391285524   0.888929876665   1.876042495139 
4

C  -0.042614265780  -0.099405434889  -0.067451216722 
C   0.114895384051   0.237452082788   1.381485095620 
H   1.072078668868  -0.068193324865   1.760044996895 
H  -0.524282578513   0.881518089952   1.873675563188 
4

C  -0.042510631800  -0.099571438767  -0.067536037618 
C   0.113194475100   0.238605595184   1.381294457663 
H   1.084605221132  -0.073134108768   1.765113358721 
H  -0.517778172862   0.874694479541   1.871889167052 
4

C  -0.042401994274  -0.099702838358  -0.067475388982 
C   0.111543730002   0.239663796267   1.380876682006 
H   1.097202561518  -0.078065528354   1.770472938393 
H  -0.512002226688   0.868584962059   1.870784656339 
4

C  -0.042288461366  -0.099799333946  -0.067268871636 
C   0.109967849215   0.240611834178   1.380229685365 
H   1.109691833844  -0.082930067905   1.776048087711 
H  -0.507068884810   0.863305468494   1.870457737179 
4

C  -0.042170131850  -0.099860662614  -0.066916196993 
C   0.108488564879   0.241436698247   1.379351712957 
H   1.121913802062  -0.087675935168   1.781770955281 
H  -0.503076451077   0.858956083193   1.870993716469 
4

C  -0.042047119181  -0.099886594616  -0.066417206512 
C   0.107124191646   0.242127691293   1.378241809979 
H   1.133728446893  -0.092256999654   1.787581067348 
H  -0.500101612256   0.855615322174   1.872462553125 
4

C  -0.041919556762  -0.099876934345  -0.065771894421 
C   0.105889332181   0.242676824224   1.376900279922 
H   1.145013777801  -0.096632722298   1.793424518665 
H  -0.498194832628   0.853335444288   1.874914479171 
4

C  -0.041787583844  -0.099831530196  -0.064980432364 
C   0.104794724520   0.243079095941   1.375329040513 
H   1.155664663264  -0.100768146182   1.799253370405 
H  -0.497377420176   0.852139260213   1.878376641575 
4

C  -0.041651332932  -0.099750287241  -0.064043193988 
C   0.103847248896   0.243332601281   1.373531859804 
H   1.165591662805  -0.104633637055   1.805025196797 
H  -0.497640381076   0.852018708721   1.882851023978 
4

C  -0.041510934452  -0.099633175102  -0.062960779199 
C   0.103050087744   0.243438456181   1.371514466704 
H   1.174719877376  -0.108204460063   1.810702667640 
H  -0.498945081427   0.852935379746   1.888313838156 
4

C  -0.041366530152  -0.099480231058  -0.061734037653 
C   0.102403055937   0.243400556742   1.369284537438 
H   1.182987516348  -0.111460300090   1.816253009598 
H  -0.501225690993   0.854822941924   1.894716511648 
4

C  -0.041218283406  -0.099291562396  -0.060364091332 
C   0.101903080483   0.243225201137   1.366851561628 
H   1.190344216053  -0.114384747538   1.821647339541 
H  -0.504393217658   0.857591206544   1.901988222197 
4

C  -0.041066383092  -0.099067350857  -0.058852356028 
C   0.101544765293   0.242920620383   1.364226602162 
H   1.196749469850  -0.116964840056   1.826860053419 
H  -0.508340692562   0.861131361683   1.910039625216 
4

C  -0.040911041832  -0.098807859804  -0.057200561979 
C   0.101320982023   0.242496468679   1.361421994298 
H   1.202171314454  -0.119190682517   1.831868355406 
H  -0.512948872959   0.865321735559   1.918767154363 
4

C  -0.040752492696  -0.098513441808  -0.055410773897 
C   0.101223430002   0.241963329751   1.358451049092 
H   1.206585215386  -0.121055090262   1.836651874856 
H  -0.518091682132   0.870033306947   1.928057178953 
4

C  -0.040590990049  -0.098184542493  -0.053485410210 
C   0.101243121945   0.241332282431   1.355327791386 
H   1.209973096475  -0.122553231642   1.841192322072 
H  -0.523640856171   0.875134439267   1.937789704300 
4

C  -0.040426818394  -0.097821698317  -0.051427261069 
C   0.101370820471   0.240614507810   1.352066662694 
H   1.212322501893  -0.123682310365   1.845473195747 
H  -0.529470219302   0.880495231093   1.947842418563 
4

C  -0.040260306019  -0.097425532593  -0.049239504355 
C   0.101597411810   0.239820962505   1.348682193310 
H   1.213625875499  -0.124441338006   1.849479569703 
H  -0.535459499828   0.885991368921   1.958094991744 
4

C  -0.040091831685  -0.096996759171  -0.046925718596 
C   0.101914140484   0.238962185341   1.345188792476 
H   1.213879957813  -0.124830974830   1.853197946441 
H  -0.541496638420   0.891506506317   1.968431866070 
4

C  -0.039921819540  -0.096536194551  -0.044489894099 
C   0.102312764702   0.238048162223   1.341600654003 
H   1.213085332816  -0.124853374696   1.856616140926 
H  -0.547479131195   0.896933741755   1.978743636466 
4

C  -0.039750733309  -0.096044766851  -0.041936444569 
C   0.102785680551   0.237088203630   1.337931692460 
H   1.211246126550  -0.124512019629   1.859723181362 
H  -0.553315025690   0.902176750255   1.988928064502 
4

C  -0.039579081205  -0.095523513712  -0.039270219589 
C   0.103326002822   0.236090868616   1.334195458482 
H   1.208369811603  -0.123811597814   1.862509252441 
H  -0.558923595790   0.907150493308   1.998891296629 
4

C  -0.039407427427  -0.094973576626  -0.036496518190 
C   0.103927601292   0.235063945934   1.330405060667 
H   1.204467088466  -0.122757966898   1.864965705931 
H  -0.564235691212   0.911781524316   2.008548935026 
4

C  -0.039236398633  -0.094396202297  -0.033621103217 
C   0.104585059726   0.234014510804   1.326573178476 
H   1.199551856521  -0.121358170879   1.867085126632 
H  -0.569193227359   0.916007456680   2.017825981040 
4

C  -0.039066684210  -0.093792749789  -0.030650215643 
C   0.105293580206   0.232949023310   1.322712144105 
H   1.193641289468  -0.119620464975   1.868861433759 
H  -0.573748041293   0.919775837241   2.026655931514 
4

C  -0.038899036562  -0.093164696463  -0.027590587716 
C   0.106048895320   0.231873405431   1.318833999452 
H   1.186756007478  -0.117554344481   1.870290019891 
H  -0.577860938200   0.923043238519   2.034980123428 
4

C  -0.038734273997  -0.092513640258  -0.024449453153 
C   0.106847194313   0.230793099612   1.314950510892 
H   1.178920323393  -0.115170596155   1.871367939888 
H  -0.581501043149   0.925774636979   2.042747492358 
4

C  -0.038573284133  -0.091841300344  -0.021234552784 
C   0.107685043177   0.229713134432   1.311073179180 
H   1.170162546498  -0.112481382744   1.872094154365 
H  -0.584645166477   0.927942767697   2.049914276331 
4

C  -0.038417025915  -0.091149517842  -0.017954135868 
C   0.108559297829   0.228638194185   1.307213255419 
H   1.160515354325  -0.109500355614   1.872469825242 
H  -0.587277129293   0.929527432046   2.056443544699 
4

C  -0.038266530879  -0.090440255898  -0.014616958724 
C   0.109467008480   0.227572687852   1.303381757377 
H   1.150016277515  -0.106242797255   1.872498671631 
H  -0.589387075883   0.930514801757   2.062304632465 
4

C  -0.038122904607  -0.089715598326  -0.011232282487 
C   0.110405309628   0.226520819967   1.299589480809 
H   1.138708342652  -0.102725807787   1.872187408906 
H  -0.590970783026   0.930896729814   2.067472540992 
4

C  -0.037987327731  -0.088977747386  -0.007809870687 
C   0.111371299697   0.225486662771   1.295847000919 
H   1.126640845705  -0.098968534233   1.871546286809 
H  -0.592028997127   0.930670094364   2.071927354364 
